@<TRIPOS>MOLECULE
CHR.xyz
50 52 0 0 0
SMALL
GASTEIGER

@<TRIPOS>ATOM
      1 N1      2.2900   -3.5180    0.0650 N.ar   1   UNL11      -0.1733
      2 C2      1.2190   -4.1760    0.5340 C.ar   1   UNL11      0.3505
      3 O2      1.3740   -5.2310    1.1640 O.2    1   UNL11      -0.2446
      4 N3     -0.0460   -3.6920    0.3210 N.ar   1   UNL11      -0.2717
      5 C4     -0.2820   -2.5430   -0.3470 C.ar   1   UNL11      0.2817
      6 O4     -1.4420   -2.1530   -0.5200 O.2    1   UNL11      -0.2653
      7 C4A     0.8260   -1.8240   -0.8360 C.ar   1   UNL11      0.1712
      8 N5      0.6610   -0.6590   -1.5010 N.ar   1   UNL11      -0.2368
      9 C5A     1.7550    0.0160   -1.9660 C.ar   1   UNL11      0.0886
     10 C6      1.5880    1.2180   -2.6520 C.ar   1   UNL11      -0.0311
     11 C7      2.6940    1.9120   -3.1210 C.ar   1   UNL11      -0.0454
     12 C7M     2.4890    3.2070   -3.8720 C.3    1   UNL11      -0.0394
     13 C8      3.9910    1.4080   -2.8990 C.ar   1   UNL11      -0.0455
     14 C8M     5.2140    2.1540   -3.3960 C.3    1   UNL11      -0.0394
     15 C9      4.1570    0.2160   -2.2300 C.ar   1   UNL11      -0.0329
     16 C9A     3.0500   -0.5000   -1.7560 C.ar   1   UNL11      0.0694
     17 N10     3.2090   -1.7010   -1.0810 N.ar   1   UNL11      -0.3195
     18 C10     2.1180   -2.3580   -0.6120 C.ar   1   UNL11      0.1705
     19 C1'     4.5360   -2.3240   -0.9220 C.3    1   UNL11      0.0538
     20 C2'     5.2830   -1.9430    0.3480 C.3    1   UNL11      0.1014
     21 O2'     5.0920   -0.5780    0.6780 O.3    1   UNL11      -0.3874
     22 C3'     6.7760   -2.2310    0.1580 C.3    1   UNL11      0.1106
     23 O3'     7.2680   -1.5050   -0.9620 O.3    1   UNL11      -0.3865
     24 C4'     7.0510   -3.7050    0.0110 C.3    1   UNL11      0.1073
     25 O4'     6.7620   -4.3500    1.2350 O.3    1   UNL11      -0.3868
     26 C5'     8.4660   -3.9830   -0.3790 C.3    1   UNL11      0.0875
     27 O5'     9.2810   -3.3540    0.5300 O.3    1   UNL11      -0.2841
     28 P      10.0920   -4.1010    1.6180 P.3    1   UNL11      0.4724
     29 O1P     9.8020   -3.4350    2.8880 O.2    1   UNL11      -0.2275
     30 O2P     9.8750   -5.5710    1.5890 O.3    1   UNL11      -0.3026
     31 O3P    11.4660   -3.8760    0.9930 O.3    1   UNL11      -0.3026
     32 H1     -0.8124   -4.2026    0.6690 H      1   UNL11      0.1735
     33 H2      0.6396    1.5924   -2.8113 H      1   UNL11      0.0642
     34 H3      1.4424    3.4198   -3.9369 H      1   UNL11      0.0278
     35 H4      2.8963    3.1162   -4.8573 H      1   UNL11      0.0278
     36 H5      2.9831    4.0020   -3.3536 H      1   UNL11      0.0278
     37 H6      4.9075    3.0525   -3.8896 H      1   UNL11      0.0278
     38 H7      5.7540    1.5362   -4.0827 H      1   UNL11      0.0278
     39 H8      5.8435    2.3997   -2.5664 H      1   UNL11      0.0278
     40 H9      5.1079   -0.1543   -2.0760 H      1   UNL11      0.0641
     41 H10     5.1384   -2.0379   -1.7588 H      1   UNL11      0.0519
     42 H11     4.3635   -3.3782   -0.8600 H      1   UNL11      0.0519
     43 H12     4.8948   -2.5273    1.1559 H      1   UNL11      0.0638
     44 H13     5.4354   -0.0211   -0.0382 H      1   UNL11      0.2100
     45 H14     7.2916   -1.9072    1.0379 H      1   UNL11      0.0646
     46 H15     6.8044   -1.7939   -1.7636 H      1   UNL11      0.2100
     47 H16     6.4261   -4.0797   -0.7726 H      1   UNL11      0.0643
     48 H17     7.3382   -3.9965    1.9307 H      1   UNL11      0.2100
     49 H18     8.6546   -3.6032   -1.3614 H      1   UNL11      0.0592
     50 H19     8.6532   -5.0365   -0.3841 H      1   UNL11      0.0592
@<TRIPOS>BOND
    1     6     5  2
    2     5     4  ar
    3     5     7  ar
    4     4     2  ar
    5     8     7  ar
    6     3     2  2
    7     2     1  ar
    8    10     9  ar
    9    10    11  ar
   10     9    16  ar
   11    18     1  ar
   12    18    17  ar
   13    11    12  1
   14    11    13  ar
   15    17    16  ar
   16    17    19  1
   17    16    15  ar
   18    13    15  ar
   19    13    14  1
   20    19    20  1
   21    20    21  1
   22    20    22  1
   23    25    24  1
   24    22    24  1
   25    22    23  1
   26    24    26  1
   27    26    27  1
   28    29    28  2
   29    27    28  1
   30    28    31  1
   31    28    30  1
   32     9     8  ar
   33     7    18  1
   34     4    32  1
   35    10    33  1
   36    12    34  1
   37    12    35  1
   38    12    36  1
   39    14    37  1
   40    14    38  1
   41    14    39  1
   42    15    40  1
   43    19    41  1
   44    19    42  1
   45    20    43  1
   46    21    44  1
   47    22    45  1
   48    23    46  1
   49    24    47  1
   50    25    48  1
   51    26    49  1
   52    26    50  1
