@<TRIPOS>MOLECULE
CHR.xyz
50 52 0 0 0
SMALL
GASTEIGER

@<TRIPOS>ATOM
      1 N1     -1.6840   -6.8520  -12.9940 N.ar   1   UNL11      -0.1733
      2 C2     -1.9010   -7.4690  -14.1760 C.ar   1   UNL11      0.3505
      3 O2     -2.9020   -8.2230  -14.3160 O.2    1   UNL11      -0.2446
      4 N3     -1.0470   -7.3080  -15.2380 N.ar   1   UNL11      -0.2717
      5 C4      0.0920   -6.5500  -15.1980 C.ar   1   UNL11      0.2817
      6 O4      0.8800   -6.5110  -16.1620 O.2    1   UNL11      -0.2653
      7 C4A     0.3260   -5.8300  -13.9710 C.ar   1   UNL11      0.1712
      8 N5      1.4270   -5.0580  -13.8450 N.ar   1   UNL11      -0.2368
      9 C5A     1.6500   -4.4500  -12.6560 C.ar   1   UNL11      0.0886
     10 C6      2.7800   -3.6530  -12.4800 C.ar   1   UNL11      -0.0311
     11 C7      3.0820   -3.0520  -11.2710 C.ar   1   UNL11      -0.0454
     12 C7M     4.3510   -2.2440  -11.1200 C.3    1   UNL11      -0.0394
     13 C8      2.1920   -3.2450  -10.1630 C.ar   1   UNL11      -0.0455
     14 C8M     2.4730   -2.5830   -8.8340 C.3    1   UNL11      -0.0394
     15 C9      1.0720   -4.0450  -10.3150 C.ar   1   UNL11      -0.0329
     16 C9A     0.7770   -4.6430  -11.5170 C.ar   1   UNL11      0.0694
     17 N10    -0.3550   -5.4620  -11.6580 N.ar   1   UNL11      -0.3195
     18 C10    -0.5960   -6.0530  -12.8800 C.ar   1   UNL11      0.1705
     19 C1'    -1.1830   -5.8320  -10.5190 C.3    1   UNL11      0.0538
     20 C2'    -2.3330   -4.9310  -10.2150 C.3    1   UNL11      0.1014
     21 O2'    -1.8860   -3.5720  -10.3640 O.3    1   UNL11      -0.3874
     22 C3'    -2.8180   -5.1610   -8.7720 C.3    1   UNL11      0.1106
     23 O3'    -1.7520   -4.9660   -7.8630 O.3    1   UNL11      -0.3865
     24 C4'    -3.3950   -6.5480   -8.5300 C.3    1   UNL11      0.1073
     25 O4'    -4.4940   -6.7710   -9.4080 O.3    1   UNL11      -0.3868
     26 C5'    -3.7700   -6.8100   -7.0730 C.3    1   UNL11      0.0875
     27 O5'    -4.5360   -5.7680   -6.5180 O.3    1   UNL11      -0.2841
     28 P      -6.1380   -5.6500   -6.6440 P.3    1   UNL11      0.4724
     29 O1P    -6.4390   -5.5110   -8.1410 O.2    1   UNL11      -0.2275
     30 O2P    -6.4740   -4.3930   -5.8880 O.3    1   UNL11      -0.3026
     31 O3P    -6.7840   -6.9080   -6.0530 O.3    1   UNL11      -0.3026
     32 H1     -1.2672   -7.7662  -16.0811 H      1   UNL11      0.1735
     33 H2      3.4144   -3.5059  -13.2806 H      1   UNL11      0.0642
     34 H3      4.8715   -2.2194  -12.0546 H      1   UNL11      0.0278
     35 H4      4.9744   -2.6947  -10.3763 H      1   UNL11      0.0278
     36 H5      4.1051   -1.2461  -10.8223 H      1   UNL11      0.0278
     37 H6      3.3732   -2.0089   -8.9047 H      1   UNL11      0.0278
     38 H7      2.5865   -3.3327   -8.0790 H      1   UNL11      0.0278
     39 H8      1.6583   -1.9386   -8.5772 H      1   UNL11      0.0278
     40 H9      0.4455   -4.1954   -9.5088 H      1   UNL11      0.0641
     41 H10    -0.5536   -5.8598   -9.6542 H      1   UNL11      0.0519
     42 H11    -1.6201   -6.7734  -10.7789 H      1   UNL11      0.0519
     43 H12    -3.1446   -5.1339  -10.8821 H      1   UNL11      0.0638
     44 H13    -1.1512   -3.4045   -9.7533 H      1   UNL11      0.2100
     45 H14    -3.6029   -4.4503   -8.6177 H      1   UNL11      0.0646
     46 H15    -1.0600   -5.6248   -8.0301 H      1   UNL11      0.2100
     47 H16    -2.6217   -7.2551   -8.7464 H      1   UNL11      0.0643
     48 H17    -5.1973   -6.1315   -9.2146 H      1   UNL11      0.2100
     49 H18    -2.8718   -6.9176   -6.5015 H      1   UNL11      0.0592
     50 H19    -4.3631   -7.7001   -7.0449 H      1   UNL11      0.0592
@<TRIPOS>BOND
    1     6     5  2
    2     5     4  ar
    3     5     7  ar
    4     4     2  ar
    5     8     7  ar
    6     3     2  2
    7     2     1  ar
    8    10     9  ar
    9    10    11  ar
   10     9    16  ar
   11    18     1  ar
   12    18    17  ar
   13    11    12  1
   14    11    13  ar
   15    17    16  ar
   16    17    19  1
   17    16    15  ar
   18    13    15  ar
   19    13    14  1
   20    19    20  1
   21    20    21  1
   22    20    22  1
   23    25    24  1
   24    22    24  1
   25    22    23  1
   26    24    26  1
   27    26    27  1
   28    29    28  2
   29    27    28  1
   30    28    31  1
   31    28    30  1
   32     9     8  ar
   33     7    18  1
   34     4    32  1
   35    10    33  1
   36    12    34  1
   37    12    35  1
   38    12    36  1
   39    14    37  1
   40    14    38  1
   41    14    39  1
   42    15    40  1
   43    19    41  1
   44    19    42  1
   45    20    43  1
   46    21    44  1
   47    22    45  1
   48    23    46  1
   49    24    47  1
   50    25    48  1
   51    26    49  1
   52    26    50  1
