@<TRIPOS>MOLECULE
CHR.xyz
50 52 0 0 0
SMALL
GASTEIGER

@<TRIPOS>ATOM
      1 N1      1.3270    7.6140    0.7510 N.ar   1   UNL11      -0.1733
      2 C2      2.2030    7.1990    1.6910 C.ar   1   UNL11      0.3505
      3 O2      2.9310    8.0160    2.2580 O.2    1   UNL11      -0.2446
      4 N3      2.2980    5.8690    2.0280 N.ar   1   UNL11      -0.2717
      5 C4      1.5190    4.9120    1.4590 C.ar   1   UNL11      0.2817
      6 O4      1.6570    3.7410    1.7780 O.2    1   UNL11      -0.2653
      7 C4A     0.5680    5.3240    0.4820 C.ar   1   UNL11      0.1712
      8 N5     -0.2570    4.4260   -0.1140 N.ar   1   UNL11      -0.2368
      9 C5A    -1.1290    4.8240   -1.0820 C.ar   1   UNL11      0.0886
     10 C6     -1.9370    3.8880   -1.7220 C.ar   1   UNL11      -0.0311
     11 C7     -2.8120    4.2690   -2.7270 C.ar   1   UNL11      -0.0454
     12 C7M    -3.6690    3.2260   -3.4060 C.3    1   UNL11      -0.0394
     13 C8     -2.8970    5.6370   -3.1010 C.ar   1   UNL11      -0.0455
     14 C8M    -3.8610    6.0830   -4.1950 C.3    1   UNL11      -0.0394
     15 C9     -2.0980    6.5770   -2.4700 C.ar   1   UNL11      -0.0329
     16 C9A    -1.1950    6.1990   -1.4610 C.ar   1   UNL11      0.0694
     17 N10    -0.3770    7.1360   -0.8200 N.ar   1   UNL11      -0.3195
     18 C10     0.5090    6.6990    0.1420 C.ar   1   UNL11      0.1705
     19 C1'    -0.3550    8.5620   -1.2170 C.3    1   UNL11      0.0538
     20 C2'    -1.3240    9.4890   -0.5120 C.3    1   UNL11      0.1014
     21 O2'    -2.5940    8.8850   -0.3390 O.3    1   UNL11      -0.3874
     22 C3'    -1.4890   10.7830   -1.3250 C.3    1   UNL11      0.1106
     23 O3'    -1.9650   10.4770   -2.6270 O.3    1   UNL11      -0.3865
     24 C4'    -0.2200   11.5800   -1.4240 C.3    1   UNL11      0.1073
     25 O4'     0.1250   12.0750   -0.1720 O.3    1   UNL11      -0.3868
     26 C5'    -0.3610   12.6680   -2.4650 C.3    1   UNL11      0.0875
     27 O5'    -0.4810   13.9350   -1.9910 O.3    1   UNL11      -0.2841
     28 P      -1.7320   14.6690   -1.3470 P.3    1   UNL11      0.4724
     29 O1P    -1.7620   14.3460    0.0890 O.2    1   UNL11      -0.2275
     30 O2P    -2.9470   14.4710   -2.1510 O.3    1   UNL11      -0.3026
     31 O3P    -1.2570   16.1440   -1.5990 O.3    1   UNL11      -0.3026
     32 H1      2.9565    5.5996    2.7085 H      1   UNL11      0.1735
     33 H2     -1.8835    2.8956   -1.4438 H      1   UNL11      0.0642
     34 H3     -3.4596    2.2642   -2.9866 H      1   UNL11      0.0278
     35 H4     -3.4521    3.2131   -4.4537 H      1   UNL11      0.0278
     36 H5     -4.7021    3.4622   -3.2586 H      1   UNL11      0.0278
     37 H6     -4.3938    5.2337   -4.5689 H      1   UNL11      0.0278
     38 H7     -3.3104    6.5378   -4.9918 H      1   UNL11      0.0278
     39 H8     -4.5553    6.7904   -3.7920 H      1   UNL11      0.0278
     40 H9     -2.1668    7.5693   -2.7448 H      1   UNL11      0.0641
     41 H10    -0.5685    8.6084   -2.2645 H      1   UNL11      0.0519
     42 H11     0.6167    8.9124   -0.9378 H      1   UNL11      0.0519
     43 H12    -0.9204    9.7066    0.4548 H      1   UNL11      0.0638
     44 H13    -2.9757    8.6804   -1.2070 H      1   UNL11      0.2100
     45 H14    -2.1991   11.3892   -0.8024 H      1   UNL11      0.0646
     46 H15    -1.3124    9.9278   -3.0891 H      1   UNL11      0.2100
     47 H16     0.5806   10.9478   -1.7471 H      1   UNL11      0.0643
     48 H17    -0.5818   12.6548    0.1525 H      1   UNL11      0.2100
     49 H18    -1.2325   12.4527   -3.0473 H      1   UNL11      0.0592
     50 H19     0.5527   12.6541   -3.0216 H      1   UNL11      0.0592
@<TRIPOS>BOND
    1     6     5  2
    2     5     4  ar
    3     5     7  ar
    4     4     2  ar
    5     8     7  ar
    6     3     2  2
    7     2     1  ar
    8    10     9  ar
    9    10    11  ar
   10     9    16  ar
   11    18     1  ar
   12    18    17  ar
   13    11    12  1
   14    11    13  ar
   15    17    16  ar
   16    17    19  1
   17    16    15  ar
   18    13    15  ar
   19    13    14  1
   20    19    20  1
   21    20    21  1
   22    20    22  1
   23    25    24  1
   24    22    24  1
   25    22    23  1
   26    24    26  1
   27    26    27  1
   28    29    28  2
   29    27    28  1
   30    28    31  1
   31    28    30  1
   32     9     8  ar
   33     7    18  1
   34     4    32  1
   35    10    33  1
   36    12    34  1
   37    12    35  1
   38    12    36  1
   39    14    37  1
   40    14    38  1
   41    14    39  1
   42    15    40  1
   43    19    41  1
   44    19    42  1
   45    20    43  1
   46    21    44  1
   47    22    45  1
   48    23    46  1
   49    24    47  1
   50    25    48  1
   51    26    49  1
   52    26    50  1
