@<TRIPOS>MOLECULE
CHR.xyz
50 52 0 0 0
SMALL
GASTEIGER

@<TRIPOS>ATOM
      1 N1     20.7690    0.7230    5.9610 N.ar   1   UNL11      -0.1733
      2 C2     20.9990   -0.5190    5.4680 C.ar   1   UNL11      0.3505
      3 O2     22.1610   -0.8990    5.2950 O.2    1   UNL11      -0.2446
      4 N3     19.9420   -1.3350    5.1030 N.ar   1   UNL11      -0.2717
      5 C4     18.6480   -0.9540    5.2780 C.ar   1   UNL11      0.2817
      6 O4     17.7550   -1.6870    4.8670 O.2    1   UNL11      -0.2653
      7 C4A    18.3890    0.3110    5.8170 C.ar   1   UNL11      0.1712
      8 N5     17.1170    0.7210    6.0300 N.ar   1   UNL11      -0.2368
      9 C5A    16.8760    1.9880    6.5420 C.ar   1   UNL11      0.0886
     10 C6     15.5630    2.4110    6.7290 C.ar   1   UNL11      -0.0311
     11 C7     15.2860    3.6810    7.2190 C.ar   1   UNL11      -0.0454
     12 C7M    13.8510    4.1350    7.3080 C.3    1   UNL11      -0.0394
     13 C8     16.3500    4.5230    7.5530 C.ar   1   UNL11      -0.0455
     14 C8M    16.0570    5.9350    8.0390 C.3    1   UNL11      -0.0394
     15 C9     17.6690    4.1000    7.3820 C.ar   1   UNL11      -0.0329
     16 C9A    17.9550    2.8310    6.8670 C.ar   1   UNL11      0.0694
     17 N10    19.2550    2.4050    6.6650 N.ar   1   UNL11      -0.3195
     18 C10    19.4800    1.1370    6.1610 C.ar   1   UNL11      0.1705
     19 C1'    20.3960    3.3420    6.7480 C.3    1   UNL11      0.0538
     20 C2'    21.0370    3.3800    8.1410 C.3    1   UNL11      0.1014
     21 O2'    20.0230    3.2940    9.1490 O.3    1   UNL11      -0.3874
     22 C3'    21.8770    4.6500    8.2810 C.3    1   UNL11      0.1106
     23 O3'    21.0590    5.7730    7.9570 O.3    1   UNL11      -0.3865
     24 C4'    23.1210    4.6030    7.3810 C.3    1   UNL11      0.1073
     25 O4'    23.9770    3.5910    7.8590 O.3    1   UNL11      -0.3868
     26 C5'    23.8500    5.9440    7.3280 C.3    1   UNL11      0.0875
     27 O5'    24.0310    6.4920    8.6160 O.3    1   UNL11      -0.2841
     28 P      25.3570    6.2320    9.4800 P.3    1   UNL11      0.4724
     29 O1P    25.2510    6.9940   10.7760 O.2    1   UNL11      -0.2275
     30 O2P    25.4900    4.7540    9.7200 O.3    1   UNL11      -0.3026
     31 O3P    26.5660    6.6880    8.6740 O.3    1   UNL11      -0.3026
     32 H1     20.1321   -2.2155    4.7057 H      1   UNL11      0.1735
     33 H2     14.7850    1.7726    6.5006 H      1   UNL11      0.0642
     34 H3     13.2050    3.3366    7.0077 H      1   UNL11      0.0278
     35 H4     13.7023    4.9758    6.6632 H      1   UNL11      0.0278
     36 H5     13.6273    4.4148    8.3163 H      1   UNL11      0.0278
     37 H6     14.9986    6.0758    8.1087 H      1   UNL11      0.0278
     38 H7     16.4661    6.6421    7.3480 H      1   UNL11      0.0278
     39 H8     16.5003    6.0799    9.0020 H      1   UNL11      0.0278
     40 H9     18.4436    4.7317    7.6389 H      1   UNL11      0.0641
     41 H10    20.0492    4.3246    6.5048 H      1   UNL11      0.0519
     42 H11    21.1418    3.0015    6.0605 H      1   UNL11      0.0519
     43 H12    21.6868    2.5394    8.2682 H      1   UNL11      0.0638
     44 H13    19.4150    4.0447    9.0609 H      1   UNL11      0.2100
     45 H14    22.2258    4.7325    9.2892 H      1   UNL11      0.0646
     46 H15    20.7463    5.6921    7.0423 H      1   UNL11      0.2100
     47 H16    22.8116    4.3888    6.3793 H      1   UNL11      0.0643
     48 H17    24.2484    3.7991    8.7667 H      1   UNL11      0.2100
     49 H18    23.2758    6.6275    6.7381 H      1   UNL11      0.0592
     50 H19    24.8155    5.7815    6.8964 H      1   UNL11      0.0592
@<TRIPOS>BOND
    1     6     5  2
    2     5     4  ar
    3     5     7  ar
    4     4     2  ar
    5     8     7  ar
    6     3     2  2
    7     2     1  ar
    8    10     9  ar
    9    10    11  ar
   10     9    16  ar
   11    18     1  ar
   12    18    17  ar
   13    11    12  1
   14    11    13  ar
   15    17    16  ar
   16    17    19  1
   17    16    15  ar
   18    13    15  ar
   19    13    14  1
   20    19    20  1
   21    20    21  1
   22    20    22  1
   23    25    24  1
   24    22    24  1
   25    22    23  1
   26    24    26  1
   27    26    27  1
   28    29    28  2
   29    27    28  1
   30    28    31  1
   31    28    30  1
   32     9     8  ar
   33     7    18  1
   34     4    32  1
   35    10    33  1
   36    12    34  1
   37    12    35  1
   38    12    36  1
   39    14    37  1
   40    14    38  1
   41    14    39  1
   42    15    40  1
   43    19    41  1
   44    19    42  1
   45    20    43  1
   46    21    44  1
   47    22    45  1
   48    23    46  1
   49    24    47  1
   50    25    48  1
   51    26    49  1
   52    26    50  1
