@<TRIPOS>MOLECULE
CHR.xyz
50 52 0 0 0
SMALL
GASTEIGER

@<TRIPOS>ATOM
      1 N1     -1.2060    8.8020   43.9510 N.ar   1   UNL11      -0.1733
      2 C2     -1.3570    9.5550   45.0930 C.ar   1   UNL11      0.3505
      3 O2     -2.3290   10.2900   45.1990 O.2    1   UNL11      -0.2446
      4 N3     -0.4290    9.4770   46.1140 N.ar   1   UNL11      -0.2717
      5 C4      0.6650    8.6460   46.0070 C.ar   1   UNL11      0.2817
      6 O4      1.4800    8.6090   46.9320 O.2    1   UNL11      -0.2653
      7 C4A     0.8210    7.8760   44.8500 C.ar   1   UNL11      0.1712
      8 N5      1.9070    7.0440   44.7030 N.ar   1   UNL11      -0.2368
      9 C5A     2.0520    6.2940   43.5570 C.ar   1   UNL11      0.0886
     10 C6      3.1580    5.4560   43.4390 C.ar   1   UNL11      -0.0311
     11 C7      3.3390    4.6860   42.2950 C.ar   1   UNL11      -0.0454
     12 C7M     4.5450    3.7950   42.2210 C.3    1   UNL11      -0.0394
     13 C8      2.4080    4.7560   41.2540 C.ar   1   UNL11      -0.0455
     14 C8M     2.5500    3.9560   39.9880 C.3    1   UNL11      -0.0394
     15 C9      1.3060    5.6020   41.3700 C.ar   1   UNL11      -0.0329
     16 C9A     1.1160    6.3770   42.5150 C.ar   1   UNL11      0.0694
     17 N10     0.0070    7.2070   42.6670 N.ar   1   UNL11      -0.3195
     18 C10    -0.1210    7.9650   43.8180 C.ar   1   UNL11      0.1705
     19 C1'    -1.0100    7.3830   41.5730 C.3    1   UNL11      0.0538
     20 C2'    -2.1840    6.4300   41.5100 C.3    1   UNL11      0.1014
     21 O2'    -1.7620    5.1240   41.8260 O.3    1   UNL11      -0.3874
     22 C3'    -2.7610    6.5020   40.0940 C.3    1   UNL11      0.1106
     23 O3'    -1.7570    6.1710   39.1340 O.3    1   UNL11      -0.3865
     24 C4'    -3.3280    7.9010   39.8020 C.3    1   UNL11      0.1073
     25 O4'    -4.3930    8.2090   40.6830 O.3    1   UNL11      -0.3868
     26 C5'    -3.8200    8.0700   38.3650 C.3    1   UNL11      0.0875
     27 O5'    -4.5230    6.9290   37.9330 O.3    1   UNL11      -0.2841
     28 P      -6.1140    6.8170   38.0700 P.3    1   UNL11      0.4724
     29 O1P    -6.5550    5.4880   37.5040 O.2    1   UNL11      -0.2275
     30 O2P    -6.5290    6.9600   39.5150 O.3    1   UNL11      -0.3026
     31 O3P    -6.7380    7.9280   37.2490 O.3    1   UNL11      -0.3026
     32 H1     -0.5507   10.0205   46.9258 H      1   UNL11      0.1735
     33 H2      3.8476    5.4060   44.2052 H      1   UNL11      0.0642
     34 H3      5.1187    3.8960   43.1186 H      1   UNL11      0.0278
     35 H4      5.1450    4.0759   41.3808 H      1   UNL11      0.0278
     36 H5      4.2309    2.7781   42.1109 H      1   UNL11      0.0278
     37 H6      3.4353    3.3575   40.0417 H      1   UNL11      0.0278
     38 H7      2.6188    4.6204   39.1521 H      1   UNL11      0.0278
     39 H8      1.6969    3.3211   39.8697 H      1   UNL11      0.0278
     40 H9      0.6219    5.6559   40.5992 H      1   UNL11      0.0641
     41 H10    -0.4883    7.3016   40.6423 H      1   UNL11      0.0519
     42 H11    -1.4573    8.3316   41.7851 H      1   UNL11      0.0519
     43 H12    -2.9370    6.7001   42.2206 H      1   UNL11      0.0638
     44 H13    -1.0762    4.8452   41.1992 H      1   UNL11      0.2100
     45 H14    -3.5596    5.7934   40.0234 H      1   UNL11      0.0646
     46 H15    -1.0298    6.8102   39.1931 H      1   UNL11      0.2100
     47 H16    -2.5106    8.5753   39.9506 H      1   UNL11      0.0643
     48 H17    -5.1244    7.5892   40.5352 H      1   UNL11      0.2100
     49 H18    -2.9781    8.2256   37.7233 H      1   UNL11      0.0592
     50 H19    -4.4808    8.9107   38.3284 H      1   UNL11      0.0592
@<TRIPOS>BOND
    1     6     5  2
    2     5     4  ar
    3     5     7  ar
    4     4     2  ar
    5     8     7  ar
    6     3     2  2
    7     2     1  ar
    8    10     9  ar
    9    10    11  ar
   10     9    16  ar
   11    18     1  ar
   12    18    17  ar
   13    11    12  1
   14    11    13  ar
   15    17    16  ar
   16    17    19  1
   17    16    15  ar
   18    13    15  ar
   19    13    14  1
   20    19    20  1
   21    20    21  1
   22    20    22  1
   23    25    24  1
   24    22    24  1
   25    22    23  1
   26    24    26  1
   27    26    27  1
   28    29    28  2
   29    27    28  1
   30    28    31  1
   31    28    30  1
   32     9     8  ar
   33     7    18  1
   34     4    32  1
   35    10    33  1
   36    12    34  1
   37    12    35  1
   38    12    36  1
   39    14    37  1
   40    14    38  1
   41    14    39  1
   42    15    40  1
   43    19    41  1
   44    19    42  1
   45    20    43  1
   46    21    44  1
   47    22    45  1
   48    23    46  1
   49    24    47  1
   50    25    48  1
   51    26    49  1
   52    26    50  1
