@<TRIPOS>MOLECULE
s1_exe_normalized | baseline=7.402026
   67 0 0 0
SMALL
GASTEIGER
@<TRIPOS>ATOM
    1 H     -0.5346   1.6537   0.5252 H1   1 S1_EXE     0.436483
    2 H     -0.1231  -0.0836   1.5233 H1   1 S1_EXE     0.801964
    3 H     -0.7244  -0.9093   1.4048 H1   1 S1_EXE     0.647859
    4 H     -0.3355   0.9170   1.3863 H1   1 S1_EXE     0.800466
    5 H     -1.7331  -0.9399   1.1325 H1   1 S1_EXE     0.617046
    6 H     -1.3315   1.3441   1.0875 H1   1 S1_EXE     0.576570
    7 H     -2.3692  -0.1666   0.8974 H1   1 S1_EXE     0.634341
    8 H     -2.1772   0.8496   0.8824 H1   1 S1_EXE     0.598495
    9 H     -1.0157  -1.5059   0.6533 H1   1 S1_EXE     0.637359
   10 H     -2.5938   0.3969   0.0785 H1   1 S1_EXE     0.612943
   11 H      0.2550   1.2974   0.0117 H1   1 S1_EXE     0.277473
   12 H     -0.7204  -1.5788  -0.3072 H1   1 S1_EXE     0.677321
   13 H     -2.1933   0.9472  -0.6885 H1   1 S1_EXE     0.558516
   14 H      0.1085   1.0101  -0.9393 H1   1 S1_EXE     0.073679
   15 H     -0.6243  -1.0778  -1.1806 H1   1 S1_EXE     0.664391
   16 H     -1.9682   0.1788  -1.3056 H1   1 S1_EXE     0.570464
   17 H     -0.2059   0.2078  -1.5016 H1   1 S1_EXE     0.458287
   18 H     -1.1105   0.6383  -1.5601 H1   1 S1_EXE     0.454798
   19 H      0.7715  -0.5303   1.6021 H1   1 S1_EXE     0.772892
   20 H      1.4708  -1.0978   1.1548 H1   1 S1_EXE     0.768554
   21 H      2.0789  -0.8972   0.3810 H1   1 S1_EXE     1.000000
   22 H      1.6552  -1.6772  -0.1107 H1   1 S1_EXE     0.730936
   23 H      2.1654  -0.3200  -0.4582 H1   1 S1_EXE     0.876537
   24 H      0.1697  -2.0036  -0.5865 H1   1 S1_EXE     0.678200
   25 H      1.6969   0.4837  -0.8937 H1   1 S1_EXE     0.081074
   26 H      1.0704  -1.7643  -0.9514 H1   1 S1_EXE     0.695057
   27 H      1.3824   0.4376   2.1244 H1   1 S1_EXE     0.882583
   28 H      0.9839   1.2968   1.8032 H1   1 S1_EXE     0.908236
   29 H      2.0182   1.1382   1.7985 H1   1 S1_EXE     0.715411
   30 H      2.2511   0.0662   1.7881 H1   1 S1_EXE     0.843081
   31 H      2.7445   0.7186   1.2127 H1   1 S1_EXE     0.746335
   32 H      1.5857   1.8392   1.1837 H1   1 S1_EXE     0.288389
   33 H      0.3948   1.5293   1.0261 H1   1 S1_EXE     0.765397
   34 H      2.6738  -0.2702   0.9404 H1   1 S1_EXE     0.998966
   35 H      2.6567   1.2265   0.3379 H1   1 S1_EXE     0.161352
   36 H      2.7916   0.2561   0.0808 H1   1 S1_EXE     0.837469
   37 H     -1.4752   1.9200   0.2767 H1   1 S1_EXE     0.460555
   38 H     -0.6938   2.2191  -0.3064 H1   1 S1_EXE     0.190716
   39 H     -1.8707   1.8943  -0.6577 H1   1 S1_EXE     0.433344
   40 H     -0.4471   1.8122  -1.1929 H1   1 S1_EXE     0.093744
   41 H      0.5074  -1.9509   1.4623 H1   1 S1_EXE     0.643912
   42 H      1.3914  -2.0945   0.9728 H1   1 S1_EXE     0.669275
   43 H     -0.2482  -2.1706   0.8247 H1   1 S1_EXE     0.646516
   44 H      0.6289  -2.6115   0.5751 H1   1 S1_EXE     0.644460
   45 H      0.9296   2.1964   0.4877 H1   1 S1_EXE    -0.333320
   46 H      2.2075   2.1144   0.4435 H1   1 S1_EXE    -0.523093
   47 H      1.5640   2.4081  -0.2662 H1   1 S1_EXE    -1.000000
   48 H      2.4462   1.7824  -0.4739 H1   1 S1_EXE    -0.778670
   49 H      0.7401   1.9432  -0.5967 H1   1 S1_EXE    -0.796223
   50 H      1.6276   1.7419  -1.0617 H1   1 S1_EXE    -0.987381
   51 H     -2.3531  -1.0659   0.3506 H1   1 S1_EXE     0.616655
   52 H     -1.7057  -1.7451  -0.0344 H1   1 S1_EXE     0.596644
   53 H     -2.7897  -0.4952  -0.3605 H1   1 S1_EXE     0.614178
   54 H     -2.4954  -1.4324  -0.5983 H1   1 S1_EXE     0.577737
   55 H     -1.4655  -1.7039  -1.0143 H1   1 S1_EXE     0.591215
   56 H     -2.4842  -0.6879  -1.2977 H1   1 S1_EXE     0.571489
   57 H     -1.5268  -0.9191  -1.6469 H1   1 S1_EXE     0.567128
   58 H     -1.2190   0.1355   2.3001 H1   1 S1_EXE     0.613217
   59 H     -1.7706   0.8645   1.8916 H1   1 S1_EXE     0.588138
   60 H     -2.0699  -0.1900   1.8813 H1   1 S1_EXE     0.595169
   61 H      1.8472  -1.0891  -1.0212 H1   1 S1_EXE     0.636804
   62 H      0.8827   0.6426  -1.4840 H1   1 S1_EXE    -0.056154
   63 H      0.2452  -1.5094  -1.4901 H1   1 S1_EXE     0.667508
   64 H      1.8968  -0.2371  -1.5663 H1   1 S1_EXE     0.297231
   65 H      1.3124  -1.3514  -1.8296 H1   1 S1_EXE     0.544149
   66 H     -0.0618  -0.6745  -1.9568 H1   1 S1_EXE     0.548761
   67 H      1.1401  -0.0412  -2.1997 H1   1 S1_EXE     0.246630
