@<TRIPOS>MOLECULE
CHR.xyz
50 52 0 0 0
SMALL
GASTEIGER

@<TRIPOS>ATOM
      1 N1     11.9200   52.3910   17.0070 N.ar   1   UNL11      -0.1733
      2 C2     11.5420   53.1350   15.9310 C.ar   1   UNL11      0.3505
      3 O2     10.5370   53.7650   15.8550 O.2    1   UNL11      -0.2446
      4 N3     12.4000   53.1920   14.7710 N.ar   1   UNL11      -0.2717
      5 C4     13.6090   52.5460   14.6510 C.ar   1   UNL11      0.2817
      6 O4     14.3020   52.6370   13.6060 O.2    1   UNL11      -0.2653
      7 C4A    14.0420   51.7510   15.8010 C.ar   1   UNL11      0.1712
      8 N5     15.1930   51.1050   15.7810 N.ar   1   UNL11      -0.2368
      9 C5A    15.5690   50.3610   16.8760 C.ar   1   UNL11      0.0886
     10 C6     16.8420   49.6520   16.8470 C.ar   1   UNL11      -0.0311
     11 C7     17.2770   48.8900   17.9190 C.ar   1   UNL11      -0.0454
     12 C7M    18.6180   48.1200   17.9360 C.3    1   UNL11      -0.0394
     13 C8     16.4330   48.7830   19.1480 C.ar   1   UNL11      -0.0455
     14 C8M    16.8650   47.9680   20.3580 C.3    1   UNL11      -0.0394
     15 C9     15.2010   49.4460   19.2030 C.ar   1   UNL11      -0.0329
     16 C9A    14.7420   50.2400   18.1070 C.ar   1   UNL11      0.0694
     17 N10    13.4910   50.9560   18.0720 N.ar   1   UNL11      -0.3195
     18 C10    13.1060   51.7220   16.9790 C.ar   1   UNL11      0.1705
     19 C1'    12.5120   50.9120   19.2200 C.3    1   UNL11      0.0538
     20 C2'    12.7790   51.9170   20.3440 C.3    1   UNL11      0.1014
     21 O2'    14.1790   52.1290   20.5090 O.3    1   UNL11      -0.3874
     22 C3'    12.2180   51.3810   21.6890 C.3    1   UNL11      0.1106
     23 O3'    12.8100   50.0230   21.8930 O.3    1   UNL11      -0.3865
     24 C4'    10.7480   51.1040   21.7300 C.3    1   UNL11      0.1073
     25 O4'     9.9230   52.2610   21.3990 O.3    1   UNL11      -0.3868
     26 C5'    10.4410   50.5810   23.1450 C.3    1   UNL11      0.0875
     27 O5'     9.3010   51.1820   23.7360 O.3    1   UNL11      -0.2841
     28 P       9.2780   52.5350   24.5440 P.3    1   UNL11      0.4724
     29 O1P     9.7330   53.6340   23.6220 O.2    1   UNL11      -0.2275
     30 O2P    10.1970   52.4250   25.7910 O.3    1   UNL11      -0.3026
     31 O3P     7.7910   52.5950   24.8930 O.3    1   UNL11      -0.3026
     32 H1     12.0968   53.7346   14.0075 H      1   UNL11      0.1735
     33 H2     17.4353   49.7194   16.0053 H      1   UNL11      0.0642
     34 H3     19.1287   48.2726   17.0082 H      1   UNL11      0.0278
     35 H4     18.4280   47.0757   18.0709 H      1   UNL11      0.0278
     36 H5     19.2252   48.4789   18.7406 H      1   UNL11      0.0278
     37 H6     17.8198   47.5245   20.1669 H      1   UNL11      0.0278
     38 H7     16.1454   47.1986   20.5451 H      1   UNL11      0.0278
     39 H8     16.9336   48.6078   21.2129 H      1   UNL11      0.0278
     40 H9     14.6152   49.3600   20.0483 H      1   UNL11      0.0641
     41 H10    12.5402   49.9289   19.6415 H      1   UNL11      0.0519
     42 H11    11.5597   51.1736   18.8081 H      1   UNL11      0.0519
     43 H12    12.2984   52.8350   20.0771 H      1   UNL11      0.0638
     44 H13    14.6064   51.2924   20.7506 H      1   UNL11      0.2100
     45 H14    12.4473   52.1429   22.4044 H      1   UNL11      0.0646
     46 H15    12.5228   49.4343   21.1776 H      1   UNL11      0.2100
     47 H16    10.5023   50.3828   20.9788 H      1   UNL11      0.0643
     48 H17    10.0877   52.9697   22.0405 H      1   UNL11      0.2100
     49 H18    11.2881   50.7756   23.7690 H      1   UNL11      0.0592
     50 H19    10.2341   49.5350   23.0555 H      1   UNL11      0.0592
@<TRIPOS>BOND
    1     6     5  2
    2     5     4  ar
    3     5     7  ar
    4     4     2  ar
    5     8     7  ar
    6     3     2  2
    7     2     1  ar
    8    10     9  ar
    9    10    11  ar
   10     9    16  ar
   11    18     1  ar
   12    18    17  ar
   13    11    12  1
   14    11    13  ar
   15    17    16  ar
   16    17    19  1
   17    16    15  ar
   18    13    15  ar
   19    13    14  1
   20    19    20  1
   21    20    21  1
   22    20    22  1
   23    25    24  1
   24    22    24  1
   25    22    23  1
   26    24    26  1
   27    26    27  1
   28    29    28  2
   29    27    28  1
   30    28    31  1
   31    28    30  1
   32     9     8  ar
   33     7    18  1
   34     4    32  1
   35    10    33  1
   36    12    34  1
   37    12    35  1
   38    12    36  1
   39    14    37  1
   40    14    38  1
   41    14    39  1
   42    15    40  1
   43    19    41  1
   44    19    42  1
   45    20    43  1
   46    21    44  1
   47    22    45  1
   48    23    46  1
   49    24    47  1
   50    25    48  1
   51    26    49  1
   52    26    50  1
