@<TRIPOS>MOLECULE
CHR.xyz
50 52 0 0 0
SMALL
GASTEIGER

@<TRIPOS>ATOM
      1 N1     -8.5360  -53.9420   12.2370 N.ar   1   UNL11      -0.1733
      2 C2     -9.3150  -54.3370   11.1740 C.ar   1   UNL11      0.3505
      3 O2     -8.8600  -55.1490   10.3950 O.2    1   UNL11      -0.2446
      4 N3    -10.5920  -53.8330   11.0120 N.ar   1   UNL11      -0.2717
      5 C4    -11.1180  -52.9280   11.9490 C.ar   1   UNL11      0.2817
      6 O4    -12.2610  -52.4100   11.7960 O.2    1   UNL11      -0.2653
      7 C4A   -10.3030  -52.5110   13.0090 C.ar   1   UNL11      0.1712
      8 N5    -10.7670  -51.5940   13.9430 N.ar   1   UNL11      -0.2368
      9 C5A    -9.9830  -51.2220   14.9890 C.ar   1   UNL11      0.0886
     10 C6    -10.4810  -50.3180   15.9290 C.ar   1   UNL11      -0.0311
     11 C7     -9.6900  -49.8870   16.9850 C.ar   1   UNL11      -0.0454
     12 C7M   -10.3050  -49.0070   18.0690 C.3    1   UNL11      -0.0394
     13 C8     -8.3710  -50.3900   17.1280 C.ar   1   UNL11      -0.0455
     14 C8M    -7.4490  -49.9110   18.2580 C.3    1   UNL11      -0.0394
     15 C9     -7.8850  -51.2930   16.1910 C.ar   1   UNL11      -0.0329
     16 C9A    -8.6760  -51.6950   15.0990 C.ar   1   UNL11      0.0694
     17 N10    -8.2010  -52.6130   14.1950 N.ar   1   UNL11      -0.3195
     18 C10    -9.0150  -53.0230   13.1420 C.ar   1   UNL11      0.1705
     19 C1'    -6.7320  -52.9350   14.1100 C.3    1   UNL11      0.0538
     20 C2'    -6.4260  -54.2390   14.8300 C.3    1   UNL11      0.1014
     21 O2'    -7.1200  -54.2820   16.0600 O.3    1   UNL11      -0.3874
     22 C3'    -4.9190  -54.3660   15.1330 C.3    1   UNL11      0.1106
     23 O3'    -4.5380  -53.2120   15.8510 O.3    1   UNL11      -0.3865
     24 C4'    -4.1010  -54.5720   13.8480 C.3    1   UNL11      0.1073
     25 O4'    -4.4610  -55.8280   13.2900 O.3    1   UNL11      -0.3868
     26 C5'    -2.5750  -54.4570   14.0130 C.3    1   UNL11      0.0875
     27 O5'    -2.0520  -55.2040   15.1010 O.3    1   UNL11      -0.2841
     28 P      -1.6800  -56.7930   14.9410 P.3    1   UNL11      0.4724
     29 O1P    -2.9150  -57.5960   14.5210 O.2    1   UNL11      -0.2275
     30 O2P    -1.1910  -57.2370   16.3050 O.3    1   UNL11      -0.3026
     31 O3P    -0.7030  -57.0200   13.8140 O.3    1   UNL11      -0.3026
     32 H1    -11.1342  -54.1090   10.2380 H      1   UNL11      0.1735
     33 H2    -11.4470  -49.9666   15.8378 H      1   UNL11      0.0642
     34 H3    -11.2976  -48.7290   17.7821 H      1   UNL11      0.0278
     35 H4     -9.7100  -48.1265   18.1938 H      1   UNL11      0.0278
     36 H5    -10.3387  -49.5483   18.9913 H      1   UNL11      0.0278
     37 H6     -7.9794  -49.2244   18.8842 H      1   UNL11      0.0278
     38 H7     -6.5940  -49.4235   17.8382 H      1   UNL11      0.0278
     39 H8     -7.1310  -50.7512   18.8392 H      1   UNL11      0.0278
     40 H9     -6.9317  -51.6738   16.2971 H      1   UNL11      0.0641
     41 H10    -6.1720  -52.1437   14.5629 H      1   UNL11      0.0519
     42 H11    -6.4611  -53.0385   13.0800 H      1   UNL11      0.0519
     43 H12    -6.7324  -55.0407   14.1911 H      1   UNL11      0.0638
     44 H13    -6.8272  -53.5478   16.6223 H      1   UNL11      0.2100
     45 H14    -4.7207  -55.2339   15.7265 H      1   UNL11      0.0646
     46 H15    -4.7169  -52.4238   15.3147 H      1   UNL11      0.2100
     47 H16    -4.3471  -53.7648   13.1901 H      1   UNL11      0.0643
     48 H17    -4.2254  -56.5364   13.9093 H      1   UNL11      0.2100
     49 H18    -2.3300  -53.4265   14.1643 H      1   UNL11      0.0592
     50 H19    -2.1372  -54.8594   13.1235 H      1   UNL11      0.0592
@<TRIPOS>BOND
    1     6     5  2
    2     5     4  ar
    3     5     7  ar
    4     4     2  ar
    5     8     7  ar
    6     3     2  2
    7     2     1  ar
    8    10     9  ar
    9    10    11  ar
   10     9    16  ar
   11    18     1  ar
   12    18    17  ar
   13    11    12  1
   14    11    13  ar
   15    17    16  ar
   16    17    19  1
   17    16    15  ar
   18    13    15  ar
   19    13    14  1
   20    19    20  1
   21    20    21  1
   22    20    22  1
   23    25    24  1
   24    22    24  1
   25    22    23  1
   26    24    26  1
   27    26    27  1
   28    29    28  2
   29    27    28  1
   30    28    31  1
   31    28    30  1
   32     9     8  ar
   33     7    18  1
   34     4    32  1
   35    10    33  1
   36    12    34  1
   37    12    35  1
   38    12    36  1
   39    14    37  1
   40    14    38  1
   41    14    39  1
   42    15    40  1
   43    19    41  1
   44    19    42  1
   45    20    43  1
   46    21    44  1
   47    22    45  1
   48    23    46  1
   49    24    47  1
   50    25    48  1
   51    26    49  1
   52    26    50  1
